**************************************************
* OpenRAM generated memory.
* Words: 128
* Data bits: 8
* Banks: 1
* Column mux: 4:1
* Trimmed: False
* LVS: True
**************************************************
*********************** "dff" ******************************
* Positive edge-triggered FF
.SUBCKT dff D Q clk vdd gnd

* SPICE3 file created from dff.ext - technology: scmos

M1000 vdd clk a_24_24# vdd p w=8u l=0.4u
M1001 a_84_296# D vdd vdd p w=4u l=0.4u
M1002 a_104_24# clk a_84_296# vdd p w=4u l=0.4u
M1003 a_140_296# a_24_24# a_104_24# vdd p w=4u l=0.4u
M1004 vdd a_152_16# a_140_296# vdd p w=4u l=0.4u
M1005 a_152_16# a_104_24# vdd vdd p w=4u l=0.4u
M1006 a_260_296# a_152_16# vdd vdd p w=4u l=0.4u
M1007 a_280_24# a_24_24# a_260_296# vdd p w=4u l=0.4u
M1008 a_320_336# clk a_280_24# vdd p w=2u l=0.4u
M1009 vdd Q a_320_336# vdd p w=2u l=0.4u
M1010 gnd clk a_24_24# gnd n w=4u l=0.4u
M1011 Q a_280_24# vdd vdd p w=8u l=0.4u
M1012 a_84_24# D gnd gnd n w=2u l=0.4u
M1013 a_104_24# a_24_24# a_84_24# gnd n w=2u l=0.4u
M1014 a_140_24# clk a_104_24# gnd n w=2u l=0.4u
M1015 gnd a_152_16# a_140_24# gnd n w=2u l=0.4u
M1016 a_152_16# a_104_24# gnd gnd n w=2u l=0.4u
M1017 a_260_24# a_152_16# gnd gnd n w=2u l=0.4u
M1018 a_280_24# clk a_260_24# gnd n w=2u l=0.4u
M1019 a_320_24# a_24_24# a_280_24# gnd n w=2u l=0.4u
M1020 gnd Q a_320_24# gnd n w=2u l=0.4u
M1021 Q a_280_24# gnd gnd n w=4u l=0.4u

.ENDS

.SUBCKT sram_16x2_data_dff
+ din_0 din_1 din_2 din_3 din_4 din_5 din_6 din_7 dout_0 dout_1 dout_2
+ dout_3 dout_4 dout_5 dout_6 dout_7 clk vdd gnd
* INPUT : din_0 
* INPUT : din_1 
* INPUT : din_2 
* INPUT : din_3 
* INPUT : din_4 
* INPUT : din_5 
* INPUT : din_6 
* INPUT : din_7 
* OUTPUT: dout_0 
* OUTPUT: dout_1 
* OUTPUT: dout_2 
* OUTPUT: dout_3 
* OUTPUT: dout_4 
* OUTPUT: dout_5 
* OUTPUT: dout_6 
* OUTPUT: dout_7 
* INPUT : clk 
* POWER : vdd 
* GROUND: gnd 
* rows: 1 cols: 8
Xdff_r0_c0
+ din_0 dout_0 clk vdd gnd
+ dff
Xdff_r0_c1
+ din_1 dout_1 clk vdd gnd
+ dff
Xdff_r0_c2
+ din_2 dout_2 clk vdd gnd
+ dff
Xdff_r0_c3
+ din_3 dout_3 clk vdd gnd
+ dff
Xdff_r0_c4
+ din_4 dout_4 clk vdd gnd
+ dff
Xdff_r0_c5
+ din_5 dout_5 clk vdd gnd
+ dff
Xdff_r0_c6
+ din_6 dout_6 clk vdd gnd
+ dff
Xdff_r0_c7
+ din_7 dout_7 clk vdd gnd
+ dff
.ENDS sram_16x2_data_dff

* spice ptx M{0} {1} n m=1 w=0.8u l=0.4u pd=2.40u ps=2.40u as=0.80p ad=0.80p

* spice ptx M{0} {1} p m=1 w=1.6u l=0.4u pd=4.00u ps=4.00u as=1.60p ad=1.60p

.SUBCKT sram_16x2_pinv_2
+ A Z vdd gnd
* INPUT : A 
* OUTPUT: Z 
* POWER : vdd 
* GROUND: gnd 
Mpinv_pmos Z A vdd vdd p m=1 w=1.6u l=0.4u 
Mpinv_nmos Z A gnd gnd n m=1 w=0.8u l=0.4u 
.ENDS sram_16x2_pinv_2

* spice ptx M{0} {1} n m=1 w=1.6u l=0.4u pd=4.00u ps=4.00u as=1.60p ad=1.60p

* spice ptx M{0} {1} p m=1 w=1.6u l=0.4u pd=4.00u ps=4.00u as=1.60p ad=1.60p

* spice ptx M{0} {1} n m=1 w=1.6u l=0.4u pd=4.00u ps=4.00u as=1.60p ad=1.60p

* spice ptx M{0} {1} n m=1 w=1.6u l=0.4u pd=4.00u ps=4.00u as=1.60p ad=1.60p

.SUBCKT sram_16x2_pnand3_0
+ A B C Z vdd gnd
* INPUT : A 
* INPUT : B 
* INPUT : C 
* OUTPUT: Z 
* POWER : vdd 
* GROUND: gnd 
Mpnand3_pmos1 vdd A Z vdd p m=1 w=1.6u l=0.4u 
Mpnand3_pmos2 Z B vdd vdd p m=1 w=1.6u l=0.4u 
Mpnand3_pmos3 Z C vdd vdd p m=1 w=1.6u l=0.4u 
Mpnand3_nmos1 Z C net1 gnd n m=1 w=1.6u l=0.4u 
Mpnand3_nmos2 net1 B net2 gnd n m=1 w=1.6u l=0.4u 
Mpnand3_nmos3 net2 A gnd gnd n m=1 w=1.6u l=0.4u 
.ENDS sram_16x2_pnand3_0

* spice ptx M{0} {1} n m=2 w=3.2u l=0.4u pd=7.20u ps=7.20u as=3.20p ad=3.20p

* spice ptx M{0} {1} p m=2 w=6.4u l=0.4u pd=13.60u ps=13.60u as=6.40p ad=6.40p

.SUBCKT sram_16x2_pinv_14
+ A Z vdd gnd
* INPUT : A 
* OUTPUT: Z 
* POWER : vdd 
* GROUND: gnd 
Mpinv_pmos Z A vdd vdd p m=2 w=6.4u l=0.4u 
Mpinv_nmos Z A gnd gnd n m=2 w=3.2u l=0.4u 
.ENDS sram_16x2_pinv_14

.SUBCKT sram_16x2_pdriver_4
+ A Z vdd gnd
* INPUT : A 
* OUTPUT: Z 
* POWER : vdd 
* GROUND: gnd 
* sizes: [8]
Xbuf_inv1
+ A Z vdd gnd
+ sram_16x2_pinv_14
.ENDS sram_16x2_pdriver_4

.SUBCKT sram_16x2_pand3_0
+ A B C Z vdd gnd
* INPUT : A 
* INPUT : B 
* INPUT : C 
* OUTPUT: Z 
* POWER : vdd 
* GROUND: gnd 
Xpand3_nand
+ A B C zb_int vdd gnd
+ sram_16x2_pnand3_0
Xpand3_inv
+ zb_int Z vdd gnd
+ sram_16x2_pdriver_4
.ENDS sram_16x2_pand3_0

* spice ptx M{0} {1} p m=1 w=6.4u l=0.4u pd=13.60u ps=13.60u as=6.40p ad=6.40p

* spice ptx M{0} {1} n m=1 w=3.2u l=0.4u pd=7.20u ps=7.20u as=3.20p ad=3.20p

.SUBCKT sram_16x2_pinv_4
+ A Z vdd gnd
* INPUT : A 
* OUTPUT: Z 
* POWER : vdd 
* GROUND: gnd 
Mpinv_pmos Z A vdd vdd p m=1 w=6.4u l=0.4u 
Mpinv_nmos Z A gnd gnd n m=1 w=3.2u l=0.4u 
.ENDS sram_16x2_pinv_4

* spice ptx M{0} {1} n m=1 w=1.6u l=0.4u pd=4.00u ps=4.00u as=1.60p ad=1.60p

* spice ptx M{0} {1} p m=1 w=3.2u l=0.4u pd=7.20u ps=7.20u as=3.20p ad=3.20p

.SUBCKT sram_16x2_pinv_3
+ A Z vdd gnd
* INPUT : A 
* OUTPUT: Z 
* POWER : vdd 
* GROUND: gnd 
Mpinv_pmos Z A vdd vdd p m=1 w=3.2u l=0.4u 
Mpinv_nmos Z A gnd gnd n m=1 w=1.6u l=0.4u 
.ENDS sram_16x2_pinv_3

.SUBCKT sram_16x2_dff_buf_0
+ D Q Qb clk vdd gnd
* INPUT : D 
* OUTPUT: Q 
* OUTPUT: Qb 
* INPUT : clk 
* POWER : vdd 
* GROUND: gnd 
* inv1: 2 inv2: 4
Xdff_buf_dff
+ D qint clk vdd gnd
+ dff
Xdff_buf_inv1
+ qint Qb vdd gnd
+ sram_16x2_pinv_3
Xdff_buf_inv2
+ Qb Q vdd gnd
+ sram_16x2_pinv_4
.ENDS sram_16x2_dff_buf_0

.SUBCKT sram_16x2_dff_buf_array
+ din_0 din_1 dout_0 dout_bar_0 dout_1 dout_bar_1 clk vdd gnd
* INPUT : din_0 
* INPUT : din_1 
* OUTPUT: dout_0 
* OUTPUT: dout_bar_0 
* OUTPUT: dout_1 
* OUTPUT: dout_bar_1 
* INPUT : clk 
* POWER : vdd 
* GROUND: gnd 
* inv1: 2 inv2: 4
Xdff_r0_c0
+ din_0 dout_0 dout_bar_0 clk vdd gnd
+ sram_16x2_dff_buf_0
Xdff_r1_c0
+ din_1 dout_1 dout_bar_1 clk vdd gnd
+ sram_16x2_dff_buf_0
.ENDS sram_16x2_dff_buf_array

* spice ptx M{0} {1} n m=7 w=3.8000000000000003u l=0.4u pd=8.40u ps=8.40u as=3.80p ad=3.80p

* spice ptx M{0} {1} p m=7 w=7.5u l=0.4u pd=15.80u ps=15.80u as=7.50p ad=7.50p

.SUBCKT sram_16x2_pinv_10
+ A Z vdd gnd
* INPUT : A 
* OUTPUT: Z 
* POWER : vdd 
* GROUND: gnd 
Mpinv_pmos Z A vdd vdd p m=7 w=7.5u l=0.4u 
Mpinv_nmos Z A gnd gnd n m=7 w=3.8000000000000003u l=0.4u 
.ENDS sram_16x2_pinv_10

* spice ptx M{0} {1} n m=3 w=2.9000000000000004u l=0.4u pd=6.60u ps=6.60u as=2.90p ad=2.90p

* spice ptx M{0} {1} p m=3 w=5.9u l=0.4u pd=12.60u ps=12.60u as=5.90p ad=5.90p

.SUBCKT sram_16x2_pinv_9
+ A Z vdd gnd
* INPUT : A 
* OUTPUT: Z 
* POWER : vdd 
* GROUND: gnd 
Mpinv_pmos Z A vdd vdd p m=3 w=5.9u l=0.4u 
Mpinv_nmos Z A gnd gnd n m=3 w=2.9000000000000004u l=0.4u 
.ENDS sram_16x2_pinv_9

.SUBCKT sram_16x2_pinv_1
+ A Z vdd gnd
* INPUT : A 
* OUTPUT: Z 
* POWER : vdd 
* GROUND: gnd 
Mpinv_pmos Z A vdd vdd p m=1 w=1.6u l=0.4u 
Mpinv_nmos Z A gnd gnd n m=1 w=0.8u l=0.4u 
.ENDS sram_16x2_pinv_1

.SUBCKT sram_16x2_pinv_8
+ A Z vdd gnd
* INPUT : A 
* OUTPUT: Z 
* POWER : vdd 
* GROUND: gnd 
Mpinv_pmos Z A vdd vdd p m=1 w=6.4u l=0.4u 
Mpinv_nmos Z A gnd gnd n m=1 w=3.2u l=0.4u 
.ENDS sram_16x2_pinv_8

.SUBCKT sram_16x2_pdriver_1
+ A Z vdd gnd
* INPUT : A 
* OUTPUT: Z 
* POWER : vdd 
* GROUND: gnd 
* sizes: [1, 1, 1, 4, 11, 33]
Xbuf_inv1
+ A Zb1_int vdd gnd
+ sram_16x2_pinv_1
Xbuf_inv2
+ Zb1_int Zb2_int vdd gnd
+ sram_16x2_pinv_1
Xbuf_inv3
+ Zb2_int Zb3_int vdd gnd
+ sram_16x2_pinv_1
Xbuf_inv4
+ Zb3_int Zb4_int vdd gnd
+ sram_16x2_pinv_8
Xbuf_inv5
+ Zb4_int Zb5_int vdd gnd
+ sram_16x2_pinv_9
Xbuf_inv6
+ Zb5_int Z vdd gnd
+ sram_16x2_pinv_10
.ENDS sram_16x2_pdriver_1

* spice ptx M{0} {1} p m=4 w=6.4u l=0.4u pd=13.60u ps=13.60u as=6.40p ad=6.40p

* spice ptx M{0} {1} n m=4 w=3.2u l=0.4u pd=7.20u ps=7.20u as=3.20p ad=3.20p

.SUBCKT sram_16x2_pinv_13
+ A Z vdd gnd
* INPUT : A 
* OUTPUT: Z 
* POWER : vdd 
* GROUND: gnd 
Mpinv_pmos Z A vdd vdd p m=4 w=6.4u l=0.4u 
Mpinv_nmos Z A gnd gnd n m=4 w=3.2u l=0.4u 
.ENDS sram_16x2_pinv_13

.SUBCKT sram_16x2_pdriver_3
+ A Z vdd gnd
* INPUT : A 
* OUTPUT: Z 
* POWER : vdd 
* GROUND: gnd 
* sizes: [16]
Xbuf_inv1
+ A Z vdd gnd
+ sram_16x2_pinv_13
.ENDS sram_16x2_pdriver_3

.SUBCKT sram_16x2_pand3
+ A B C Z vdd gnd
* INPUT : A 
* INPUT : B 
* INPUT : C 
* OUTPUT: Z 
* POWER : vdd 
* GROUND: gnd 
Xpand3_nand
+ A B C zb_int vdd gnd
+ sram_16x2_pnand3_0
Xpand3_inv
+ zb_int Z vdd gnd
+ sram_16x2_pdriver_3
.ENDS sram_16x2_pand3

.SUBCKT sram_16x2_pnand2_1
+ A B Z vdd gnd
* INPUT : A 
* INPUT : B 
* OUTPUT: Z 
* POWER : vdd 
* GROUND: gnd 
Mpnand2_pmos1 vdd A Z vdd p m=1 w=1.6u l=0.4u 
Mpnand2_pmos2 Z B vdd vdd p m=1 w=1.6u l=0.4u 
Mpnand2_nmos1 Z B net1 gnd n m=1 w=1.6u l=0.4u 
Mpnand2_nmos2 net1 A gnd gnd n m=1 w=1.6u l=0.4u 
.ENDS sram_16x2_pnand2_1

* spice ptx M{0} {1} n m=3 w=3.2u l=0.4u pd=7.20u ps=7.20u as=3.20p ad=3.20p

* spice ptx M{0} {1} p m=3 w=6.4u l=0.4u pd=13.60u ps=13.60u as=6.40p ad=6.40p

.SUBCKT sram_16x2_pinv_5
+ A Z vdd gnd
* INPUT : A 
* OUTPUT: Z 
* POWER : vdd 
* GROUND: gnd 
Mpinv_pmos Z A vdd vdd p m=3 w=6.4u l=0.4u 
Mpinv_nmos Z A gnd gnd n m=3 w=3.2u l=0.4u 
.ENDS sram_16x2_pinv_5

.SUBCKT sram_16x2_pdriver_0
+ A Z vdd gnd
* INPUT : A 
* OUTPUT: Z 
* POWER : vdd 
* GROUND: gnd 
* sizes: [12]
Xbuf_inv1
+ A Z vdd gnd
+ sram_16x2_pinv_5
.ENDS sram_16x2_pdriver_0

.SUBCKT sram_16x2_pnand2_0
+ A B Z vdd gnd
* INPUT : A 
* INPUT : B 
* OUTPUT: Z 
* POWER : vdd 
* GROUND: gnd 
Mpnand2_pmos1 vdd A Z vdd p m=1 w=1.6u l=0.4u 
Mpnand2_pmos2 Z B vdd vdd p m=1 w=1.6u l=0.4u 
Mpnand2_nmos1 Z B net1 gnd n m=1 w=1.6u l=0.4u 
Mpnand2_nmos2 net1 A gnd gnd n m=1 w=1.6u l=0.4u 
.ENDS sram_16x2_pnand2_0

.SUBCKT sram_16x2_pand2_0
+ A B Z vdd gnd
* INPUT : A 
* INPUT : B 
* OUTPUT: Z 
* POWER : vdd 
* GROUND: gnd 
Xpand2_nand
+ A B zb_int vdd gnd
+ sram_16x2_pnand2_0
Xpand2_inv
+ zb_int Z vdd gnd
+ sram_16x2_pdriver_0
.ENDS sram_16x2_pand2_0

.SUBCKT sram_16x2_pdriver_5
+ A Z vdd gnd
* INPUT : A 
* OUTPUT: Z 
* POWER : vdd 
* GROUND: gnd 
* sizes: [1, 1, 4, 11]
Xbuf_inv1
+ A Zb1_int vdd gnd
+ sram_16x2_pinv_1
Xbuf_inv2
+ Zb1_int Zb2_int vdd gnd
+ sram_16x2_pinv_1
Xbuf_inv3
+ Zb2_int Zb3_int vdd gnd
+ sram_16x2_pinv_8
Xbuf_inv4
+ Zb3_int Z vdd gnd
+ sram_16x2_pinv_9
.ENDS sram_16x2_pdriver_5

* spice ptx M{0} {1} p m=2 w=8.0u l=0.4u pd=16.80u ps=16.80u as=8.00p ad=8.00p

* spice ptx M{0} {1} n m=2 w=4.0u l=0.4u pd=8.80u ps=8.80u as=4.00p ad=4.00p

.SUBCKT sram_16x2_pinv_12
+ A Z vdd gnd
* INPUT : A 
* OUTPUT: Z 
* POWER : vdd 
* GROUND: gnd 
Mpinv_pmos Z A vdd vdd p m=2 w=8.0u l=0.4u 
Mpinv_nmos Z A gnd gnd n m=2 w=4.0u l=0.4u 
.ENDS sram_16x2_pinv_12

* spice ptx M{0} {1} p m=1 w=4.800000000000001u l=0.4u pd=10.40u ps=10.40u as=4.80p ad=4.80p

* spice ptx M{0} {1} n m=1 w=2.4000000000000004u l=0.4u pd=5.60u ps=5.60u as=2.40p ad=2.40p

.SUBCKT sram_16x2_pinv_11
+ A Z vdd gnd
* INPUT : A 
* OUTPUT: Z 
* POWER : vdd 
* GROUND: gnd 
Mpinv_pmos Z A vdd vdd p m=1 w=4.800000000000001u l=0.4u 
Mpinv_nmos Z A gnd gnd n m=1 w=2.4000000000000004u l=0.4u 
.ENDS sram_16x2_pinv_11

.SUBCKT sram_16x2_pdriver_2
+ A Z vdd gnd
* INPUT : A 
* OUTPUT: Z 
* POWER : vdd 
* GROUND: gnd 
* sizes: [3, 10]
Xbuf_inv1
+ A Zb1_int vdd gnd
+ sram_16x2_pinv_11
Xbuf_inv2
+ Zb1_int Z vdd gnd
+ sram_16x2_pinv_12
.ENDS sram_16x2_pdriver_2

.SUBCKT sram_16x2_pinv_15
+ A Z vdd gnd
* INPUT : A 
* OUTPUT: Z 
* POWER : vdd 
* GROUND: gnd 
Mpinv_pmos Z A vdd vdd p m=1 w=1.6u l=0.4u 
Mpinv_nmos Z A gnd gnd n m=1 w=0.8u l=0.4u 
.ENDS sram_16x2_pinv_15

.SUBCKT sram_16x2_delay_chain
+ in out vdd gnd
* INPUT : in 
* OUTPUT: out 
* POWER : vdd 
* GROUND: gnd 
* fanouts: [4, 4, 4, 4, 4, 4, 4, 4, 4]
Xdinv0
+ in dout_1 vdd gnd
+ sram_16x2_pinv_15
Xdload_0_0
+ dout_1 n_0_0 vdd gnd
+ sram_16x2_pinv_15
Xdload_0_1
+ dout_1 n_0_1 vdd gnd
+ sram_16x2_pinv_15
Xdload_0_2
+ dout_1 n_0_2 vdd gnd
+ sram_16x2_pinv_15
Xdload_0_3
+ dout_1 n_0_3 vdd gnd
+ sram_16x2_pinv_15
Xdinv1
+ dout_1 dout_2 vdd gnd
+ sram_16x2_pinv_15
Xdload_1_0
+ dout_2 n_1_0 vdd gnd
+ sram_16x2_pinv_15
Xdload_1_1
+ dout_2 n_1_1 vdd gnd
+ sram_16x2_pinv_15
Xdload_1_2
+ dout_2 n_1_2 vdd gnd
+ sram_16x2_pinv_15
Xdload_1_3
+ dout_2 n_1_3 vdd gnd
+ sram_16x2_pinv_15
Xdinv2
+ dout_2 dout_3 vdd gnd
+ sram_16x2_pinv_15
Xdload_2_0
+ dout_3 n_2_0 vdd gnd
+ sram_16x2_pinv_15
Xdload_2_1
+ dout_3 n_2_1 vdd gnd
+ sram_16x2_pinv_15
Xdload_2_2
+ dout_3 n_2_2 vdd gnd
+ sram_16x2_pinv_15
Xdload_2_3
+ dout_3 n_2_3 vdd gnd
+ sram_16x2_pinv_15
Xdinv3
+ dout_3 dout_4 vdd gnd
+ sram_16x2_pinv_15
Xdload_3_0
+ dout_4 n_3_0 vdd gnd
+ sram_16x2_pinv_15
Xdload_3_1
+ dout_4 n_3_1 vdd gnd
+ sram_16x2_pinv_15
Xdload_3_2
+ dout_4 n_3_2 vdd gnd
+ sram_16x2_pinv_15
Xdload_3_3
+ dout_4 n_3_3 vdd gnd
+ sram_16x2_pinv_15
Xdinv4
+ dout_4 dout_5 vdd gnd
+ sram_16x2_pinv_15
Xdload_4_0
+ dout_5 n_4_0 vdd gnd
+ sram_16x2_pinv_15
Xdload_4_1
+ dout_5 n_4_1 vdd gnd
+ sram_16x2_pinv_15
Xdload_4_2
+ dout_5 n_4_2 vdd gnd
+ sram_16x2_pinv_15
Xdload_4_3
+ dout_5 n_4_3 vdd gnd
+ sram_16x2_pinv_15
Xdinv5
+ dout_5 dout_6 vdd gnd
+ sram_16x2_pinv_15
Xdload_5_0
+ dout_6 n_5_0 vdd gnd
+ sram_16x2_pinv_15
Xdload_5_1
+ dout_6 n_5_1 vdd gnd
+ sram_16x2_pinv_15
Xdload_5_2
+ dout_6 n_5_2 vdd gnd
+ sram_16x2_pinv_15
Xdload_5_3
+ dout_6 n_5_3 vdd gnd
+ sram_16x2_pinv_15
Xdinv6
+ dout_6 dout_7 vdd gnd
+ sram_16x2_pinv_15
Xdload_6_0
+ dout_7 n_6_0 vdd gnd
+ sram_16x2_pinv_15
Xdload_6_1
+ dout_7 n_6_1 vdd gnd
+ sram_16x2_pinv_15
Xdload_6_2
+ dout_7 n_6_2 vdd gnd
+ sram_16x2_pinv_15
Xdload_6_3
+ dout_7 n_6_3 vdd gnd
+ sram_16x2_pinv_15
Xdinv7
+ dout_7 dout_8 vdd gnd
+ sram_16x2_pinv_15
Xdload_7_0
+ dout_8 n_7_0 vdd gnd
+ sram_16x2_pinv_15
Xdload_7_1
+ dout_8 n_7_1 vdd gnd
+ sram_16x2_pinv_15
Xdload_7_2
+ dout_8 n_7_2 vdd gnd
+ sram_16x2_pinv_15
Xdload_7_3
+ dout_8 n_7_3 vdd gnd
+ sram_16x2_pinv_15
Xdinv8
+ dout_8 out vdd gnd
+ sram_16x2_pinv_15
Xdload_8_0
+ out n_8_0 vdd gnd
+ sram_16x2_pinv_15
Xdload_8_1
+ out n_8_1 vdd gnd
+ sram_16x2_pinv_15
Xdload_8_2
+ out n_8_2 vdd gnd
+ sram_16x2_pinv_15
Xdload_8_3
+ out n_8_3 vdd gnd
+ sram_16x2_pinv_15
.ENDS sram_16x2_delay_chain

.SUBCKT sram_16x2_control_logic_rw
+ csb web clk rbl_bl s_en w_en p_en_bar wl_en clk_buf vdd gnd
* INPUT : csb 
* INPUT : web 
* INPUT : clk 
* INPUT : rbl_bl 
* OUTPUT: s_en 
* OUTPUT: w_en 
* OUTPUT: p_en_bar 
* OUTPUT: wl_en 
* OUTPUT: clk_buf 
* POWER : vdd 
* GROUND: gnd 
* word_size 8
Xctrl_dffs
+ csb web cs_bar cs we_bar we clk_buf vdd gnd
+ sram_16x2_dff_buf_array
Xclkbuf
+ clk clk_buf vdd gnd
+ sram_16x2_pdriver_1
Xinv_clk_bar
+ clk_buf clk_bar vdd gnd
+ sram_16x2_pinv_2
Xand2_gated_clk_bar
+ clk_bar cs gated_clk_bar vdd gnd
+ sram_16x2_pand2_0
Xand2_gated_clk_buf
+ clk_buf cs gated_clk_buf vdd gnd
+ sram_16x2_pand2_0
Xbuf_wl_en
+ gated_clk_bar wl_en vdd gnd
+ sram_16x2_pdriver_2
Xrbl_bl_delay_inv
+ rbl_bl_delay rbl_bl_delay_bar vdd gnd
+ sram_16x2_pinv_2
Xw_en_and
+ we rbl_bl_delay_bar gated_clk_bar w_en vdd gnd
+ sram_16x2_pand3
Xbuf_s_en_and
+ rbl_bl_delay gated_clk_bar we_bar s_en vdd gnd
+ sram_16x2_pand3_0
Xdelay_chain
+ rbl_bl rbl_bl_delay vdd gnd
+ sram_16x2_delay_chain
Xnand_p_en_bar
+ gated_clk_buf rbl_bl_delay p_en_bar_unbuf vdd gnd
+ sram_16x2_pnand2_1
Xbuf_p_en_bar
+ p_en_bar_unbuf p_en_bar vdd gnd
+ sram_16x2_pdriver_5
.ENDS sram_16x2_control_logic_rw

.SUBCKT sram_16x2_col_addr_dff
+ din_0 din_1 dout_0 dout_1 clk vdd gnd
* INPUT : din_0 
* INPUT : din_1 
* OUTPUT: dout_0 
* OUTPUT: dout_1 
* INPUT : clk 
* POWER : vdd 
* GROUND: gnd 
* rows: 1 cols: 2
Xdff_r0_c0
+ din_0 dout_0 clk vdd gnd
+ dff
Xdff_r0_c1
+ din_1 dout_1 clk vdd gnd
+ dff
.ENDS sram_16x2_col_addr_dff

.SUBCKT sram_16x2_row_addr_dff
+ din_0 din_1 din_2 din_3 din_4 dout_0 dout_1 dout_2 dout_3 dout_4 clk
+ vdd gnd
* INPUT : din_0 
* INPUT : din_1 
* INPUT : din_2 
* INPUT : din_3 
* INPUT : din_4 
* OUTPUT: dout_0 
* OUTPUT: dout_1 
* OUTPUT: dout_2 
* OUTPUT: dout_3 
* OUTPUT: dout_4 
* INPUT : clk 
* POWER : vdd 
* GROUND: gnd 
* rows: 5 cols: 1
Xdff_r0_c0
+ din_0 dout_0 clk vdd gnd
+ dff
Xdff_r1_c0
+ din_1 dout_1 clk vdd gnd
+ dff
Xdff_r2_c0
+ din_2 dout_2 clk vdd gnd
+ dff
Xdff_r3_c0
+ din_3 dout_3 clk vdd gnd
+ dff
Xdff_r4_c0
+ din_4 dout_4 clk vdd gnd
+ dff
.ENDS sram_16x2_row_addr_dff
*********************** Write_Driver ******************************
.SUBCKT write_driver din bl br en vdd gnd

**** Inverter to conver Data_in to data_in_bar ******
* din_bar = inv(din)
M_1 din_bar din gnd gnd n W=0.8u L=0.4u
M_2 din_bar din vdd vdd p W=1.4u L=0.4u

**** 2input nand gate follwed by inverter to drive BL ******
* din_bar_gated = nand(en, din)
M_3 din_bar_gated en net_7 gnd n W=1.4u L=0.4u
M_4 net_7 din gnd gnd n W=1.4u L=0.4u
M_5 din_bar_gated en vdd vdd p W=1.4u L=0.4u
M_6 din_bar_gated din vdd vdd p W=1.4u L=0.4u
* din_bar_gated_bar = inv(din_bar_gated)
M_7 din_bar_gated_bar din_bar_gated vdd vdd p W=1.4u L=0.4u
M_8 din_bar_gated_bar din_bar_gated gnd gnd n W=0.8u L=0.4u

**** 2input nand gate follwed by inverter to drive BR******
* din_gated = nand(en, din_bar)
M_9 din_gated en vdd vdd p W=1.4u L=0.4u
M_10 din_gated en net_8 gnd n W=1.4u L=0.4u
M_11 net_8 din_bar gnd gnd n W=1.4u L=0.4u
M_12 din_gated din_bar vdd vdd p W=1.4u L=0.4u
* din_gated_bar = inv(din_gated)
M_13 din_gated_bar din_gated vdd vdd p W=1.4u L=0.4u
M_14 din_gated_bar din_gated gnd gnd n W=0.8u L=0.4u

************************************************
* pull down with en enable
M_15 bl din_gated_bar gnd gnd n W=2.4u L=0.4u
M_16 br din_bar_gated_bar gnd gnd n W=2.4u L=0.4u



.ENDS   $ write_driver

.SUBCKT sram_16x2_write_driver_array
+ data_0 data_1 data_2 data_3 data_4 data_5 data_6 data_7 bl_0 br_0 bl_1
+ br_1 bl_2 br_2 bl_3 br_3 bl_4 br_4 bl_5 br_5 bl_6 br_6 bl_7 br_7 en
+ vdd gnd
* INPUT : data_0 
* INPUT : data_1 
* INPUT : data_2 
* INPUT : data_3 
* INPUT : data_4 
* INPUT : data_5 
* INPUT : data_6 
* INPUT : data_7 
* OUTPUT: bl_0 
* OUTPUT: br_0 
* OUTPUT: bl_1 
* OUTPUT: br_1 
* OUTPUT: bl_2 
* OUTPUT: br_2 
* OUTPUT: bl_3 
* OUTPUT: br_3 
* OUTPUT: bl_4 
* OUTPUT: br_4 
* OUTPUT: bl_5 
* OUTPUT: br_5 
* OUTPUT: bl_6 
* OUTPUT: br_6 
* OUTPUT: bl_7 
* OUTPUT: br_7 
* INPUT : en 
* POWER : vdd 
* GROUND: gnd 
* word_size 8
Xwrite_driver0
+ data_0 bl_0 br_0 en vdd gnd
+ write_driver
Xwrite_driver4
+ data_1 bl_1 br_1 en vdd gnd
+ write_driver
Xwrite_driver8
+ data_2 bl_2 br_2 en vdd gnd
+ write_driver
Xwrite_driver12
+ data_3 bl_3 br_3 en vdd gnd
+ write_driver
Xwrite_driver16
+ data_4 bl_4 br_4 en vdd gnd
+ write_driver
Xwrite_driver20
+ data_5 bl_5 br_5 en vdd gnd
+ write_driver
Xwrite_driver24
+ data_6 bl_6 br_6 en vdd gnd
+ write_driver
Xwrite_driver28
+ data_7 bl_7 br_7 en vdd gnd
+ write_driver
.ENDS sram_16x2_write_driver_array

.SUBCKT sram_16x2_precharge_0
+ bl br en_bar vdd
* OUTPUT: bl 
* OUTPUT: br 
* INPUT : en_bar 
* POWER : vdd 
Mlower_pmos bl en_bar br vdd p m=1 w=1.6u l=0.4u 
Mupper_pmos1 bl en_bar vdd vdd p m=1 w=1.6u l=0.4u 
Mupper_pmos2 br en_bar vdd vdd p m=1 w=1.6u l=0.4u 
.ENDS sram_16x2_precharge_0

.SUBCKT sram_16x2_precharge_array
+ bl_0 br_0 bl_1 br_1 bl_2 br_2 bl_3 br_3 bl_4 br_4 bl_5 br_5 bl_6 br_6
+ bl_7 br_7 bl_8 br_8 bl_9 br_9 bl_10 br_10 bl_11 br_11 bl_12 br_12
+ bl_13 br_13 bl_14 br_14 bl_15 br_15 bl_16 br_16 bl_17 br_17 bl_18
+ br_18 bl_19 br_19 bl_20 br_20 bl_21 br_21 bl_22 br_22 bl_23 br_23
+ bl_24 br_24 bl_25 br_25 bl_26 br_26 bl_27 br_27 bl_28 br_28 bl_29
+ br_29 bl_30 br_30 bl_31 br_31 bl_32 br_32 en_bar vdd
* OUTPUT: bl_0 
* OUTPUT: br_0 
* OUTPUT: bl_1 
* OUTPUT: br_1 
* OUTPUT: bl_2 
* OUTPUT: br_2 
* OUTPUT: bl_3 
* OUTPUT: br_3 
* OUTPUT: bl_4 
* OUTPUT: br_4 
* OUTPUT: bl_5 
* OUTPUT: br_5 
* OUTPUT: bl_6 
* OUTPUT: br_6 
* OUTPUT: bl_7 
* OUTPUT: br_7 
* OUTPUT: bl_8 
* OUTPUT: br_8 
* OUTPUT: bl_9 
* OUTPUT: br_9 
* OUTPUT: bl_10 
* OUTPUT: br_10 
* OUTPUT: bl_11 
* OUTPUT: br_11 
* OUTPUT: bl_12 
* OUTPUT: br_12 
* OUTPUT: bl_13 
* OUTPUT: br_13 
* OUTPUT: bl_14 
* OUTPUT: br_14 
* OUTPUT: bl_15 
* OUTPUT: br_15 
* OUTPUT: bl_16 
* OUTPUT: br_16 
* OUTPUT: bl_17 
* OUTPUT: br_17 
* OUTPUT: bl_18 
* OUTPUT: br_18 
* OUTPUT: bl_19 
* OUTPUT: br_19 
* OUTPUT: bl_20 
* OUTPUT: br_20 
* OUTPUT: bl_21 
* OUTPUT: br_21 
* OUTPUT: bl_22 
* OUTPUT: br_22 
* OUTPUT: bl_23 
* OUTPUT: br_23 
* OUTPUT: bl_24 
* OUTPUT: br_24 
* OUTPUT: bl_25 
* OUTPUT: br_25 
* OUTPUT: bl_26 
* OUTPUT: br_26 
* OUTPUT: bl_27 
* OUTPUT: br_27 
* OUTPUT: bl_28 
* OUTPUT: br_28 
* OUTPUT: bl_29 
* OUTPUT: br_29 
* OUTPUT: bl_30 
* OUTPUT: br_30 
* OUTPUT: bl_31 
* OUTPUT: br_31 
* OUTPUT: bl_32 
* OUTPUT: br_32 
* INPUT : en_bar 
* POWER : vdd 
* cols: 33 size: 1 bl: bl br: br
Xpre_column_0
+ bl_0 br_0 en_bar vdd
+ sram_16x2_precharge_0
Xpre_column_1
+ bl_1 br_1 en_bar vdd
+ sram_16x2_precharge_0
Xpre_column_2
+ bl_2 br_2 en_bar vdd
+ sram_16x2_precharge_0
Xpre_column_3
+ bl_3 br_3 en_bar vdd
+ sram_16x2_precharge_0
Xpre_column_4
+ bl_4 br_4 en_bar vdd
+ sram_16x2_precharge_0
Xpre_column_5
+ bl_5 br_5 en_bar vdd
+ sram_16x2_precharge_0
Xpre_column_6
+ bl_6 br_6 en_bar vdd
+ sram_16x2_precharge_0
Xpre_column_7
+ bl_7 br_7 en_bar vdd
+ sram_16x2_precharge_0
Xpre_column_8
+ bl_8 br_8 en_bar vdd
+ sram_16x2_precharge_0
Xpre_column_9
+ bl_9 br_9 en_bar vdd
+ sram_16x2_precharge_0
Xpre_column_10
+ bl_10 br_10 en_bar vdd
+ sram_16x2_precharge_0
Xpre_column_11
+ bl_11 br_11 en_bar vdd
+ sram_16x2_precharge_0
Xpre_column_12
+ bl_12 br_12 en_bar vdd
+ sram_16x2_precharge_0
Xpre_column_13
+ bl_13 br_13 en_bar vdd
+ sram_16x2_precharge_0
Xpre_column_14
+ bl_14 br_14 en_bar vdd
+ sram_16x2_precharge_0
Xpre_column_15
+ bl_15 br_15 en_bar vdd
+ sram_16x2_precharge_0
Xpre_column_16
+ bl_16 br_16 en_bar vdd
+ sram_16x2_precharge_0
Xpre_column_17
+ bl_17 br_17 en_bar vdd
+ sram_16x2_precharge_0
Xpre_column_18
+ bl_18 br_18 en_bar vdd
+ sram_16x2_precharge_0
Xpre_column_19
+ bl_19 br_19 en_bar vdd
+ sram_16x2_precharge_0
Xpre_column_20
+ bl_20 br_20 en_bar vdd
+ sram_16x2_precharge_0
Xpre_column_21
+ bl_21 br_21 en_bar vdd
+ sram_16x2_precharge_0
Xpre_column_22
+ bl_22 br_22 en_bar vdd
+ sram_16x2_precharge_0
Xpre_column_23
+ bl_23 br_23 en_bar vdd
+ sram_16x2_precharge_0
Xpre_column_24
+ bl_24 br_24 en_bar vdd
+ sram_16x2_precharge_0
Xpre_column_25
+ bl_25 br_25 en_bar vdd
+ sram_16x2_precharge_0
Xpre_column_26
+ bl_26 br_26 en_bar vdd
+ sram_16x2_precharge_0
Xpre_column_27
+ bl_27 br_27 en_bar vdd
+ sram_16x2_precharge_0
Xpre_column_28
+ bl_28 br_28 en_bar vdd
+ sram_16x2_precharge_0
Xpre_column_29
+ bl_29 br_29 en_bar vdd
+ sram_16x2_precharge_0
Xpre_column_30
+ bl_30 br_30 en_bar vdd
+ sram_16x2_precharge_0
Xpre_column_31
+ bl_31 br_31 en_bar vdd
+ sram_16x2_precharge_0
Xpre_column_32
+ bl_32 br_32 en_bar vdd
+ sram_16x2_precharge_0
.ENDS sram_16x2_precharge_array

* spice ptx M{0} {1} n m=1 w=6.4u l=0.4u pd=13.60u ps=13.60u as=6.40p ad=6.40p

.SUBCKT sram_16x2_column_mux
+ bl br bl_out br_out sel gnd
* INOUT : bl 
* INOUT : br 
* INOUT : bl_out 
* INOUT : br_out 
* INOUT : sel 
* INOUT : gnd 
Mmux_tx1 bl sel bl_out gnd n m=1 w=6.4u l=0.4u 
Mmux_tx2 br sel br_out gnd n m=1 w=6.4u l=0.4u 
.ENDS sram_16x2_column_mux

.SUBCKT sram_16x2_column_mux_array
+ bl_0 br_0 bl_1 br_1 bl_2 br_2 bl_3 br_3 bl_4 br_4 bl_5 br_5 bl_6 br_6
+ bl_7 br_7 bl_8 br_8 bl_9 br_9 bl_10 br_10 bl_11 br_11 bl_12 br_12
+ bl_13 br_13 bl_14 br_14 bl_15 br_15 bl_16 br_16 bl_17 br_17 bl_18
+ br_18 bl_19 br_19 bl_20 br_20 bl_21 br_21 bl_22 br_22 bl_23 br_23
+ bl_24 br_24 bl_25 br_25 bl_26 br_26 bl_27 br_27 bl_28 br_28 bl_29
+ br_29 bl_30 br_30 bl_31 br_31 sel_0 sel_1 sel_2 sel_3 bl_out_0
+ br_out_0 bl_out_1 br_out_1 bl_out_2 br_out_2 bl_out_3 br_out_3
+ bl_out_4 br_out_4 bl_out_5 br_out_5 bl_out_6 br_out_6 bl_out_7
+ br_out_7 gnd
* INOUT : bl_0 
* INOUT : br_0 
* INOUT : bl_1 
* INOUT : br_1 
* INOUT : bl_2 
* INOUT : br_2 
* INOUT : bl_3 
* INOUT : br_3 
* INOUT : bl_4 
* INOUT : br_4 
* INOUT : bl_5 
* INOUT : br_5 
* INOUT : bl_6 
* INOUT : br_6 
* INOUT : bl_7 
* INOUT : br_7 
* INOUT : bl_8 
* INOUT : br_8 
* INOUT : bl_9 
* INOUT : br_9 
* INOUT : bl_10 
* INOUT : br_10 
* INOUT : bl_11 
* INOUT : br_11 
* INOUT : bl_12 
* INOUT : br_12 
* INOUT : bl_13 
* INOUT : br_13 
* INOUT : bl_14 
* INOUT : br_14 
* INOUT : bl_15 
* INOUT : br_15 
* INOUT : bl_16 
* INOUT : br_16 
* INOUT : bl_17 
* INOUT : br_17 
* INOUT : bl_18 
* INOUT : br_18 
* INOUT : bl_19 
* INOUT : br_19 
* INOUT : bl_20 
* INOUT : br_20 
* INOUT : bl_21 
* INOUT : br_21 
* INOUT : bl_22 
* INOUT : br_22 
* INOUT : bl_23 
* INOUT : br_23 
* INOUT : bl_24 
* INOUT : br_24 
* INOUT : bl_25 
* INOUT : br_25 
* INOUT : bl_26 
* INOUT : br_26 
* INOUT : bl_27 
* INOUT : br_27 
* INOUT : bl_28 
* INOUT : br_28 
* INOUT : bl_29 
* INOUT : br_29 
* INOUT : bl_30 
* INOUT : br_30 
* INOUT : bl_31 
* INOUT : br_31 
* INOUT : sel_0 
* INOUT : sel_1 
* INOUT : sel_2 
* INOUT : sel_3 
* INOUT : bl_out_0 
* INOUT : br_out_0 
* INOUT : bl_out_1 
* INOUT : br_out_1 
* INOUT : bl_out_2 
* INOUT : br_out_2 
* INOUT : bl_out_3 
* INOUT : br_out_3 
* INOUT : bl_out_4 
* INOUT : br_out_4 
* INOUT : bl_out_5 
* INOUT : br_out_5 
* INOUT : bl_out_6 
* INOUT : br_out_6 
* INOUT : bl_out_7 
* INOUT : br_out_7 
* INOUT : gnd 
* cols: 32 word_size: 8 bl: bl br: br
XXMUX0
+ bl_0 br_0 bl_out_0 br_out_0 sel_0 gnd
+ sram_16x2_column_mux
XXMUX1
+ bl_1 br_1 bl_out_0 br_out_0 sel_1 gnd
+ sram_16x2_column_mux
XXMUX2
+ bl_2 br_2 bl_out_0 br_out_0 sel_2 gnd
+ sram_16x2_column_mux
XXMUX3
+ bl_3 br_3 bl_out_0 br_out_0 sel_3 gnd
+ sram_16x2_column_mux
XXMUX4
+ bl_4 br_4 bl_out_1 br_out_1 sel_0 gnd
+ sram_16x2_column_mux
XXMUX5
+ bl_5 br_5 bl_out_1 br_out_1 sel_1 gnd
+ sram_16x2_column_mux
XXMUX6
+ bl_6 br_6 bl_out_1 br_out_1 sel_2 gnd
+ sram_16x2_column_mux
XXMUX7
+ bl_7 br_7 bl_out_1 br_out_1 sel_3 gnd
+ sram_16x2_column_mux
XXMUX8
+ bl_8 br_8 bl_out_2 br_out_2 sel_0 gnd
+ sram_16x2_column_mux
XXMUX9
+ bl_9 br_9 bl_out_2 br_out_2 sel_1 gnd
+ sram_16x2_column_mux
XXMUX10
+ bl_10 br_10 bl_out_2 br_out_2 sel_2 gnd
+ sram_16x2_column_mux
XXMUX11
+ bl_11 br_11 bl_out_2 br_out_2 sel_3 gnd
+ sram_16x2_column_mux
XXMUX12
+ bl_12 br_12 bl_out_3 br_out_3 sel_0 gnd
+ sram_16x2_column_mux
XXMUX13
+ bl_13 br_13 bl_out_3 br_out_3 sel_1 gnd
+ sram_16x2_column_mux
XXMUX14
+ bl_14 br_14 bl_out_3 br_out_3 sel_2 gnd
+ sram_16x2_column_mux
XXMUX15
+ bl_15 br_15 bl_out_3 br_out_3 sel_3 gnd
+ sram_16x2_column_mux
XXMUX16
+ bl_16 br_16 bl_out_4 br_out_4 sel_0 gnd
+ sram_16x2_column_mux
XXMUX17
+ bl_17 br_17 bl_out_4 br_out_4 sel_1 gnd
+ sram_16x2_column_mux
XXMUX18
+ bl_18 br_18 bl_out_4 br_out_4 sel_2 gnd
+ sram_16x2_column_mux
XXMUX19
+ bl_19 br_19 bl_out_4 br_out_4 sel_3 gnd
+ sram_16x2_column_mux
XXMUX20
+ bl_20 br_20 bl_out_5 br_out_5 sel_0 gnd
+ sram_16x2_column_mux
XXMUX21
+ bl_21 br_21 bl_out_5 br_out_5 sel_1 gnd
+ sram_16x2_column_mux
XXMUX22
+ bl_22 br_22 bl_out_5 br_out_5 sel_2 gnd
+ sram_16x2_column_mux
XXMUX23
+ bl_23 br_23 bl_out_5 br_out_5 sel_3 gnd
+ sram_16x2_column_mux
XXMUX24
+ bl_24 br_24 bl_out_6 br_out_6 sel_0 gnd
+ sram_16x2_column_mux
XXMUX25
+ bl_25 br_25 bl_out_6 br_out_6 sel_1 gnd
+ sram_16x2_column_mux
XXMUX26
+ bl_26 br_26 bl_out_6 br_out_6 sel_2 gnd
+ sram_16x2_column_mux
XXMUX27
+ bl_27 br_27 bl_out_6 br_out_6 sel_3 gnd
+ sram_16x2_column_mux
XXMUX28
+ bl_28 br_28 bl_out_7 br_out_7 sel_0 gnd
+ sram_16x2_column_mux
XXMUX29
+ bl_29 br_29 bl_out_7 br_out_7 sel_1 gnd
+ sram_16x2_column_mux
XXMUX30
+ bl_30 br_30 bl_out_7 br_out_7 sel_2 gnd
+ sram_16x2_column_mux
XXMUX31
+ bl_31 br_31 bl_out_7 br_out_7 sel_3 gnd
+ sram_16x2_column_mux
.ENDS sram_16x2_column_mux_array
*********************** "sense_amp" ******************************

.SUBCKT sense_amp bl br dout en vdd gnd

* SPICE3 file created from sense_amp.ext - technology: scmos

M1000 gnd en a_56_432# gnd n w=1.8u l=0.4u
M1001 a_56_432# a_48_304# dout gnd n w=1.8u l=0.4u
M1002 a_48_304# dout a_56_432# gnd n w=1.8u l=0.4u
M1003 vdd a_48_304# dout vdd p w=3.6u l=0.4u
M1004 a_48_304# dout vdd vdd p w=3.6u l=0.4u
M1005 bl en dout vdd p w=4.8u l=0.4u
M1006 a_48_304# en br vdd p w=4.8u l=0.4u

.ENDS

.SUBCKT sram_16x2_sense_amp_array
+ data_0 bl_0 br_0 data_1 bl_1 br_1 data_2 bl_2 br_2 data_3 bl_3 br_3
+ data_4 bl_4 br_4 data_5 bl_5 br_5 data_6 bl_6 br_6 data_7 bl_7 br_7 en
+ vdd gnd
* OUTPUT: data_0 
* INPUT : bl_0 
* INPUT : br_0 
* OUTPUT: data_1 
* INPUT : bl_1 
* INPUT : br_1 
* OUTPUT: data_2 
* INPUT : bl_2 
* INPUT : br_2 
* OUTPUT: data_3 
* INPUT : bl_3 
* INPUT : br_3 
* OUTPUT: data_4 
* INPUT : bl_4 
* INPUT : br_4 
* OUTPUT: data_5 
* INPUT : bl_5 
* INPUT : br_5 
* OUTPUT: data_6 
* INPUT : bl_6 
* INPUT : br_6 
* OUTPUT: data_7 
* INPUT : bl_7 
* INPUT : br_7 
* INPUT : en 
* POWER : vdd 
* GROUND: gnd 
* words_per_row: 4
Xsa_d0
+ bl_0 br_0 data_0 en vdd gnd
+ sense_amp
Xsa_d1
+ bl_1 br_1 data_1 en vdd gnd
+ sense_amp
Xsa_d2
+ bl_2 br_2 data_2 en vdd gnd
+ sense_amp
Xsa_d3
+ bl_3 br_3 data_3 en vdd gnd
+ sense_amp
Xsa_d4
+ bl_4 br_4 data_4 en vdd gnd
+ sense_amp
Xsa_d5
+ bl_5 br_5 data_5 en vdd gnd
+ sense_amp
Xsa_d6
+ bl_6 br_6 data_6 en vdd gnd
+ sense_amp
Xsa_d7
+ bl_7 br_7 data_7 en vdd gnd
+ sense_amp
.ENDS sram_16x2_sense_amp_array

.SUBCKT sram_16x2_port_data
+ rbl_bl rbl_br bl_0 br_0 bl_1 br_1 bl_2 br_2 bl_3 br_3 bl_4 br_4 bl_5
+ br_5 bl_6 br_6 bl_7 br_7 bl_8 br_8 bl_9 br_9 bl_10 br_10 bl_11 br_11
+ bl_12 br_12 bl_13 br_13 bl_14 br_14 bl_15 br_15 bl_16 br_16 bl_17
+ br_17 bl_18 br_18 bl_19 br_19 bl_20 br_20 bl_21 br_21 bl_22 br_22
+ bl_23 br_23 bl_24 br_24 bl_25 br_25 bl_26 br_26 bl_27 br_27 bl_28
+ br_28 bl_29 br_29 bl_30 br_30 bl_31 br_31 dout_0 dout_1 dout_2 dout_3
+ dout_4 dout_5 dout_6 dout_7 din_0 din_1 din_2 din_3 din_4 din_5 din_6
+ din_7 sel_0 sel_1 sel_2 sel_3 s_en p_en_bar w_en vdd gnd
* INOUT : rbl_bl 
* INOUT : rbl_br 
* INOUT : bl_0 
* INOUT : br_0 
* INOUT : bl_1 
* INOUT : br_1 
* INOUT : bl_2 
* INOUT : br_2 
* INOUT : bl_3 
* INOUT : br_3 
* INOUT : bl_4 
* INOUT : br_4 
* INOUT : bl_5 
* INOUT : br_5 
* INOUT : bl_6 
* INOUT : br_6 
* INOUT : bl_7 
* INOUT : br_7 
* INOUT : bl_8 
* INOUT : br_8 
* INOUT : bl_9 
* INOUT : br_9 
* INOUT : bl_10 
* INOUT : br_10 
* INOUT : bl_11 
* INOUT : br_11 
* INOUT : bl_12 
* INOUT : br_12 
* INOUT : bl_13 
* INOUT : br_13 
* INOUT : bl_14 
* INOUT : br_14 
* INOUT : bl_15 
* INOUT : br_15 
* INOUT : bl_16 
* INOUT : br_16 
* INOUT : bl_17 
* INOUT : br_17 
* INOUT : bl_18 
* INOUT : br_18 